This is my main file for my project.
New Line.
GitHub Hook Triggers
